28557
  Marvin  12300703363D          

 42 42  0  0  0  0            999 V2000
   -0.9286   -1.3132   -1.0622 O   0  0  0  0  0  0  0  0  0  0  0  0
    2.4335   -2.7764   -1.2753 O   0  0  0  0  0  0  0  0  0  0  0  0
   -3.4288    1.3688   -1.2754 O   0  0  0  0  0  0  0  0  0  0  0  0
    3.3883   -1.4043    1.2524 O   0  0  0  0  0  0  0  0  0  0  0  0
   -2.4534    2.7264    1.2523 O   0  0  0  0  0  0  0  0  0  0  0  0
    0.9607    1.3586    1.0768 O   0  0  0  0  0  0  0  0  0  0  0  0
    0.3368   -1.6295   -1.6640 C   0  0  0  0  0  0  0  0  0  0  0  0
   -1.6486   -0.2257   -1.6640 C   0  0  0  0  0  0  0  0  0  0  0  0
    1.0642   -2.7077   -0.8378 C   0  0  0  0  0  0  0  0  0  0  0  0
   -2.9077    0.1007   -0.8379 C   0  0  0  0  0  0  0  0  0  0  0  0
    3.4223   -3.2894   -0.3669 C   0  0  0  0  0  0  0  0  0  0  0  0
   -4.2420    2.1301   -0.3669 C   0  0  0  0  0  0  0  0  0  0  0  0
    4.2080   -2.1684    0.3511 C   0  0  0  0  0  0  0  0  0  0  0  0
   -3.4470    3.2445    0.3511 C   0  0  0  0  0  0  0  0  0  0  0  0
    2.9236   -0.1054    0.8419 C   0  0  0  0  0  0  0  0  0  0  0  0
   -1.0739    2.7213    0.8418 C   0  0  0  0  0  0  0  0  0  0  0  0
    1.6779    0.2628    1.6740 C   0  0  0  0  0  0  0  0  0  0  0  0
   -0.3115    1.6694    1.6738 C   0  0  0  0  0  0  0  0  0  0  0  0
    0.1964   -1.9859   -2.6864 H   0  0  0  0  0  0  0  0  0  0  0  0
    0.9637   -0.7358   -1.7016 H   0  0  0  0  0  0  0  0  0  0  0  0
   -1.9377   -0.4768   -2.6864 H   0  0  0  0  0  0  0  0  0  0  0  0
   -1.0150    0.6633   -1.7015 H   0  0  0  0  0  0  0  0  0  0  0  0
    0.5833   -3.6777   -0.9885 H   0  0  0  0  0  0  0  0  0  0  0  0
    0.9823   -2.4609    0.2230 H   0  0  0  0  0  0  0  0  0  0  0  0
   -3.6618   -0.6759   -0.9886 H   0  0  0  0  0  0  0  0  0  0  0  0
   -2.6477    0.1057    0.2230 H   0  0  0  0  0  0  0  0  0  0  0  0
    4.1263   -3.8537   -0.9813 H   0  0  0  0  0  0  0  0  0  0  0  0
    3.0092   -3.9951    0.3602 H   0  0  0  0  0  0  0  0  0  0  0  0
   -5.0087    2.6058   -0.9813 H   0  0  0  0  0  0  0  0  0  0  0  0
   -4.7697    1.5054    0.3602 H   0  0  0  0  0  0  0  0  0  0  0  0
    4.9739   -2.6397    0.9692 H   0  0  0  0  0  0  0  0  0  0  0  0
    4.7346   -1.5481   -0.3797 H   0  0  0  0  0  0  0  0  0  0  0  0
   -4.1467    3.8095    0.9692 H   0  0  0  0  0  0  0  0  0  0  0  0
   -3.0378    3.9478   -0.3797 H   0  0  0  0  0  0  0  0  0  0  0  0
    3.7111    0.6343    1.0025 H   0  0  0  0  0  0  0  0  0  0  0  0
    2.6637   -0.0842   -0.2175 H   0  0  0  0  0  0  0  0  0  0  0  0
   -0.6390    3.7103    1.0026 H   0  0  0  0  0  0  0  0  0  0  0  0
   -0.9673    2.4833   -0.2176 H   0  0  0  0  0  0  0  0  0  0  0  0
    1.9816    0.5159    2.6923 H   0  0  0  0  0  0  0  0  0  0  0  0
    1.0307   -0.6164    1.7257 H   0  0  0  0  0  0  0  0  0  0  0  0
   -0.1743    2.0400    2.6922 H   0  0  0  0  0  0  0  0  0  0  0  0
   -0.9247    0.7661    1.7254 H   0  0  0  0  0  0  0  0  0  0  0  0
  1  7  1  0  0  0  0
  1  8  1  0  0  0  0
  2  9  1  0  0  0  0
  2 11  1  0  0  0  0
  3 10  1  0  0  0  0
  3 12  1  0  0  0  0
  4 13  1  0  0  0  0
  4 15  1  0  0  0  0
  5 14  1  0  0  0  0
  5 16  1  0  0  0  0
  6 17  1  0  0  0  0
  6 18  1  0  0  0  0
  7  9  1  0  0  0  0
  7 19  1  0  0  0  0
  7 20  1  0  0  0  0
  8 10  1  0  0  0  0
  8 21  1  0  0  0  0
  8 22  1  0  0  0  0
  9 23  1  0  0  0  0
  9 24  1  0  0  0  0
 10 25  1  0  0  0  0
 10 26  1  0  0  0  0
 11 13  1  0  0  0  0
 11 27  1  0  0  0  0
 11 28  1  0  0  0  0
 12 14  1  0  0  0  0
 12 29  1  0  0  0  0
 12 30  1  0  0  0  0
 13 31  1  0  0  0  0
 13 32  1  0  0  0  0
 14 33  1  0  0  0  0
 14 34  1  0  0  0  0
 15 17  1  0  0  0  0
 15 35  1  0  0  0  0
 15 36  1  0  0  0  0
 16 18  1  0  0  0  0
 16 37  1  0  0  0  0
 16 38  1  0  0  0  0
 17 39  1  0  0  0  0
 17 40  1  0  0  0  0
 18 41  1  0  0  0  0
 18 42  1  0  0  0  0
M  END

> <StdInChI>
InChI=1S/C12H24O6/c1-2-14-5-6-16-9-10-18-12-11-17-8-7-15-4-3-13-1/h1-12H2

> <StdInChIKey>
XEZNGIUYQVAUSS-UHFFFAOYSA-N

> <AuxInfo>
1/0/N:7,9,8,10,11,13,12,14,15,17,16,18,1,2,3,4,5,6/E:(1,2,3,4,5,6,7,8,9,10,11,12)(13,14,15,16,17,18)/rA:42nOOOOOOCCCCCCCCCCCCHHHHHHHHHHHHHHHHHHHHHHHH/rB:;;;;;s1;s1;s2s7;s3s8;s2;s3;s4s11;s5s12;s4;s5;s6s15;s6s16;s7;s7;s8;s8;s9;s9;s10;s10;s11;s11;s12;s12;s13;s13;s14;s14;s15;s15;s16;s16;s17;s17;s18;s18;/rC:-.9286,-1.3132,-1.0622;2.4335,-2.7764,-1.2753;-3.4288,1.3688,-1.2754;3.3883,-1.4043,1.2524;-2.4534,2.7264,1.2523;.9607,1.3586,1.0768;.3368,-1.6295,-1.664;-1.6486,-.2257,-1.664;1.0642,-2.7077,-.8378;-2.9077,.1007,-.8379;3.4223,-3.2894,-.3669;-4.242,2.1301,-.3669;4.208,-2.1684,.3511;-3.447,3.2445,.3511;2.9236,-.1054,.8419;-1.0739,2.7213,.8418;1.6779,.2628,1.674;-.3115,1.6694,1.6738;.1964,-1.9859,-2.6864;.9637,-.7358,-1.7016;-1.9377,-.4768,-2.6864;-1.015,.6633,-1.7015;.5833,-3.6777,-.9885;.9823,-2.4609,.223;-3.6618,-.6759,-.9886;-2.6477,.1057,.223;4.1263,-3.8537,-.9813;3.0092,-3.9951,.3602;-5.0087,2.6058,-.9813;-4.7697,1.5054,.3602;4.9739,-2.6397,.9692;4.7346,-1.5481,-.3797;-4.1467,3.8095,.9692;-3.0378,3.9478,-.3797;3.7111,.6343,1.0025;2.6637,-.0842,-.2175;-.639,3.7103,1.0026;-.9673,2.4833,-.2176;1.9816,.5159,2.6923;1.0307,-.6164,1.7257;-.1743,2.04,2.6922;-.9247,.7661,1.7254;

> <Formula>
C12 H24 O6

> <Mw>
264.3154

> <SMILES>
O1C([H])([H])C([H])([H])OC([H])([H])C([H])([H])OC([H])([H])C([H])([H])OC([H])([H])C([H])([H])OC([H])([H])C([H])([H])OC([H])([H])C1([H])[H]

> <CSID>
26563
